# Packages
 &PACKAGES
 useCAL         = .TRUE.,
 useEXF         = .TRUE.,
 useDiagnostics = .TRUE.,
 useKPP         = .TRUE.,
 useOBCS        = .TRUE.,
 useSeaice      = .TRUE.,
 &
