#
# *******************
# Calendar Parameters
# *******************
 &CAL_NML
 TheCalendar='gregorian',
 startDate_1=19920115,
 startDate_2=120000,
 calendarDumps = .TRUE.,
 &
